LTspice 26.0.1 for Windows
Circuit: C:\Users\lucca\Desktop\TP_Final_TC1\filtroFINAL.net
Start Time: Fri May 29 16:09:06 2026
solver = Normal
Maximum thread count: 8
tnom = 27
temp = 27
method = trap
Direct Newton iteration failed to find operating point.
Starting Gmin stepping
Gmin stepping failed to find operating point. Use".option gminsteps=0" to skip all Gmin stepping.
Starting source stepping with srcstepmethod=0
Source stepping succeeded in finding the operating point.

Total elapsed time: 0.045 seconds.

Files loaded:
C:\Users\lucca\Desktop\TP_Final_TC1\filtroFINAL.net
C:\Users\lucca\AppData\Local\LTspice\lib\sub\ADI.lib

