LTspice 26.0.1 for Windows
Circuit: C:\Users\lucca\Desktop\TP_Final_TC1\2_1.net
Start Time: Wed May 27 14:18:33 2026
solver = Normal
Maximum thread count: 8
tnom = 27
temp = 27
method = trap
.OP point found by inspection.
.OP point found by inspection.
Total elapsed time: 0.046 seconds.

Files loaded:
C:\Users\lucca\Desktop\TP_Final_TC1\2_1.net

