LTspice 26.0.1 for Windows
Circuit: C:\Users\lucca\Desktop\TP_Final_TC1\simulaciones\2_1.net
Start Time: Fri Jun 26 09:34:34 2026
solver = Normal
Maximum thread count: 8
tnom = 27
temp = 27
method = trap
.OP point found by inspection.
.OP point found by inspection.
Total elapsed time: 0.156 seconds.

Files loaded:
C:\Users\lucca\Desktop\TP_Final_TC1\simulaciones\2_1.net

