LTspice 26.0.1 for Windows
Circuit: C:\Users\lucca\Desktop\TP_Final_TC1\archivoslt\2_2.net
Start Time: Wed May 27 14:56:53 2026
solver = Normal
Maximum thread count: 8
tnom = 27
temp = 27
method = trap
.OP point found by inspection.
.OP point found by inspection.
Total elapsed time: 0.060 seconds.

Files loaded:
C:\Users\lucca\Desktop\TP_Final_TC1\archivoslt\2_2.net

